Version 4.1
SHEET 1 880 680
WIRE 192 64 64 64
WIRE 336 64 288 64
WIRE 448 64 336 64
WIRE 64 96 64 64
WIRE 272 176 272 112
WIRE 336 176 336 64
WIRE 448 176 448 64
WIRE 272 240 272 176
WIRE 64 352 64 176
WIRE 272 352 272 320
WIRE 272 352 64 352
WIRE 448 352 448 240
WIRE 448 352 272 352
WIRE 272 384 272 352
FLAG 272 384 0
FLAG 448 64 Vout
FLAG 64 64 Vin
SYMBOL voltage 64 80 R0
WINDOW 123 0 0 Left 0
WINDOW 39 0 0 Left 0
SYMATTR InstName V1
SYMATTR Value -8.4
SYMBOL pmos 192 112 R270
SYMATTR InstName M1
SYMBOL zener 272 192 R270
WINDOW 0 36 32 VTop 2
WINDOW 3 -4 32 VBottom 2
SYMATTR InstName D1
SYMBOL res 256 224 R0
SYMATTR InstName R1
SYMATTR Value 27k
SYMBOL cap 432 176 R0
SYMATTR InstName C1
SYMATTR Value 100n
TEXT 24 408 Left 2 !.tran 0 1 0 0.01
